<?xml version="1.0" encoding="UTF-8"?>


<routes xmlns:xsi="http://www.w3.org/2001/XMLSchema-instance" xsi:noNamespaceSchemaLocation="http://sumo.dlr.de/xsd/routes_file.xsd">
	
    <vType id="TAXI_1" guiShape="passenger/sedan" 	  maxSpeed="16.67" accel="1.9" decel="3" length="4.370" width="1.700" emissionClass="HBEFA3/PC_G_EU2" color="255,255,0"/>
	<vType id="TAXI_2" guiShape="passenger/sedan"     maxSpeed="16.67" accel="1.9" decel="3" length="4.370" width="1.700" emissionClass="HBEFA3/PC_G_EU3" color="255,255,0"/>
	<vType id="TAXI_3" guiShape="passenger/sedan"     maxSpeed="16.67" accel="1.9" decel="3" length="4.370" width="1.700" emissionClass="HBEFA3/PC_G_EU4" color="255,255,0"/>
	<vType id="TAXI_4" guiShape="passenger/sedan"     maxSpeed="16.67" accel="1.9" decel="3" length="4.370" width="1.700" emissionClass="HBEFA3/PC_G_EU5" color="255,255,0"/>
	<vType id="TAXI_5" guiShape="passenger/sedan"     maxSpeed="16.67" accel="1.9" decel="3" length="4.370" width="1.700" emissionClass="HBEFA4/PC_petrol_Euro-6d" color="255,255,0"/>
	

	<route id="route4_1" 
	edges=" 48376054#6	  	48376054#7		48376054#8		48376054#9 
			821216342#3		821216342#4		821216342#5		821216342#6
			821216340		1005561391#0	1005561391#1	1005561391#2	
			1005561389		79091803#0		79091803#1		79091803#2		
			79091803#3		79091803#4		79091803#5		76391869#0
			76391869#1		76391869#2		76391869#3		633036928#0
			633036928#1		633036928#2		633036928#3		633036928#4
			1005800377		76391866#0		76391866#1		76391866#2
			76391866#3		76391866#4		76391866#5		76391866#6
			76391866#7		76391866#8		76391866#9		76391866#10
			76391866#11		76391866#12		76391866#13		76391866#14
			627028292		-108333920#10	-78046810#19	-78046810#18
			-78046810#17	-78046810#16	-78046810#15	-78046810#14
			-78046810#13	-78046810#12	-78046810#11                   ">
	</route>
	
<vehicle id="5" route="route4_1" type="TAXI_5" depart="0.00" departPos="0.00">			
	<stop	lane="48376054#6_0"  endPos="49.35"	duration="60.6"	/>
	<stop	lane="48376054#7_0"  endPos="53.04"	duration="25.2"	/>
	<stop	lane="48376054#8_0"  endPos="47.60"	duration="25.2"	/>
	<stop	lane="79091803#4_0"  endPos="-2"	duration="20.5"	/>
	<stop	lane="76391869#0_0"  endPos="23.78"	duration="25.2"	/>
	<stop	lane="76391869#0_0"  endPos="-2"	duration="20.5"	/>
	<stop	lane="76391869#1_0"  endPos="46.33"	duration="25.2"	/>
	<stop	lane="76391869#2_0"  endPos="44.75"	duration="25.2"	/>
	<stop	lane="76391869#3_0"  endPos="118.13"	duration="25.2"	/>
	<stop	lane="633036928#0_0"  endPos="27.57"	duration="25.2"	/>
	<stop	lane="633036928#1_0"  endPos="22.69"	duration="25.2"	/>
	<stop	lane="633036928#3_0"  endPos="17.79"	duration="25.2"	/>
	<stop	lane="76391866#3_0"  endPos="66.73"	duration="25.2"	/>
</vehicle>

</routes>