<configuration>

<input>
<net-file value="pasto_network.net.xml"/>
<route-files value="route5.rou.xml"/>
</input>

<output>
<emission-output value="emissions5.xml"/>
</output>

<time>
<begin value="0"/>
<end value="2000"/>
</time>

</configuration>