<?xml version="1.0" encoding="UTF-8"?>


<routes xmlns:xsi="http://www.w3.org/2001/XMLSchema-instance" xsi:noNamespaceSchemaLocation="http://sumo.dlr.de/xsd/routes_file.xsd">
	
    <vType id="TAXI_1" guiShape="passenger/hatchback" maxSpeed="16.67" accel="1.9" decel="3" length="3.765" width="1.660" emissionClass="HBEFA3/PC_G_EU6" color="255,255,0"/>
	<vType id="TAXI_2" guiShape="passenger/sedan"     maxSpeed="16.67" accel="1.9" decel="3" length="3.995" width="1.660" emissionClass="HBEFA3/PC_G_EU6" color="255,255,0"/>
	<vType id="TAXI_3" guiShape="passenger/sedan"     maxSpeed="16.67" accel="1.9" decel="3" length="4.370" width="1.700" emissionClass="HBEFA3/PC_G_EU6" color="255,255,0"/>

	<route id="route1_1" 
	edges="-91859786#0	48205266#1 
			48205266#2	48205266#3 48399843#3	48399843#4	
            48399843#5	48399843#6	48399843#7 48399843#8  
			48399843#9 48399843#10	48399843#11 48399843#12 
			48399843#13 48399843#14	48399843#15 633036935#4 
			633036935#5 1005535556 	88520196#0 88520196#1 
			88520196#2 88520196#3	88520196#4	 88520196#5	 
			88520196#6	 88520196#7	88520196#8	 49157398#1	 
			49157398#2	 49157398#3	79091803#1 79091803#2 
			79091803#3 371527429	76503806#2	 76503806#3	 
			76507207#0  76507207#1	788613102  48398801#0 
			48398801#1 48398801#2   48398801#3	 48398801#4	 
			48398801#5	 48398801#6	48398801#7	 48398801#8	 
			48398801#9 48398801#10	48398801#11 48398801#12
			48398801#13 48398801#14 48398786#9	 48398786#0	 
			48398786#1	 48398786#2	48398786#3	 375276833#0 
			375276833#1 375276833#2">
	</route>
	
	<route id="route2_1" edges="932018780#8 	932018780#9	 91859768#3	 74918635#8
								74918635#9		79091947#4	79091947#5	79091947#6
								788613104#0		788613104#1	788613104#2	788613104#3
								788613104#4		633072642#0	633072642#1 633072642#2
								633072642#3		48870204#6	48870204#7	48870204#8
								76391869#2		76391869#3 633036928#0	633036928#1
								633036928#2 	633036928#3	96379264	375278864#10
								375278864#11   -268532188#2 ">
	</route> 
	
	
	
<vehicle id="1" route="route1_1" type="TAXI_3" depart="0.00" departPos="0.00">	
	<!-- Stop signs  -->
	<stop	lane="48205266#2_0"	 endPos="-2"	duration="20.5" />
	<stop	lane="48205266#3_0"	 endPos="-2"	duration="20.5"	/>
	<stop	lane="48399843#15_0" endPos="-2"	duration="20.5"	/>
	<stop	lane="633036935#4_0" endPos="-2"	duration="20.5"	/>
	<stop	lane="88520196#0_0"  endPos="-2"	duration="20.5"	/>
	<stop	lane="88520196#1_0"  endPos="-2"	duration="20.5"	/>
	<stop	lane="88520196#2_0"  endPos="-2"	duration="20.5"	/>
	<stop	lane="88520196#3_0"  endPos="-2"	duration="20.5"	/>
	<stop	lane="88520196#4_0"  endPos="-2"	duration="20.5"	/>
	<stop	lane="88520196#5_0"  endPos="-2"	duration="20.5"	/>
	<stop	lane="88520196#6_0"  endPos="-2"	duration="20.5"	/>
	<stop	lane="88520196#7_0"  endPos="-2"	duration="20.5"	/>
	<stop	lane="88520196#8_0"  endPos="-2"	duration="20.5"	/>
	<stop	lane="49157398#3_0"  endPos="-2"	duration="20.5"	/>
	<stop	lane="79091803#1_0"  endPos="-2"	duration="10.5"	/>
	<stop	lane="79091803#2_0"  endPos="-2"	duration="10.5"	/>
	<stop	lane="79091803#3_0"  endPos="-2"	duration="10.5"	/>
	<stop	lane="76503806#2_0"  endPos="-2"	duration="10.5"	/>
	<stop	lane="76503806#3_0"  endPos="-2"	duration="10.5"	/>
	
	<!-- Traffic congestion - Peak hour -->

	<stop	lane="48398801#14_0" endPos="-2"	duration="20.5"	/>
	<stop	lane="375276833#0_0" endPos="-2"	duration="20.5"	/>
	<stop	lane="375276833#1_0" endPos="-2"	duration="20.5"	/>
	<stop	lane="375276833#2_0" endPos="-2"	duration="20.5"	/> 
	
	<!-- Stop signs -  hour
	<stop	lane="48205266#2_0"	 endPos="-2"	duration="9.2" />
	<stop	lane="48205266#3_0"	 endPos="-2"	duration="9.2"	/>
	<stop	lane="48399843#15_0" endPos="-2"	duration="9.2"	/>
	<stop	lane="633036935#4_0" endPos="-2"	duration="9.2"	/>
	<stop	lane="88520196#0_0"  endPos="-2"	duration="9.2"	/>
	<stop	lane="88520196#1_0"  endPos="-2"	duration="9.2"	/>
	<stop	lane="88520196#2_0"  endPos="-2"	duration="9.2"	/>
	<stop	lane="88520196#3_0"  endPos="-2"	duration="9.2"	/>
	<stop	lane="88520196#4_0"  endPos="-2"	duration="9.2"	/>
	<stop	lane="88520196#5_0"  endPos="-2"	duration="9.2"	/>
	<stop	lane="88520196#6_0"  endPos="-2"	duration="9.2"	/>
	<stop	lane="88520196#7_0"  endPos="-2"	duration="9.2"	/>
	<stop	lane="88520196#8_0"  endPos="-2"	duration="9.2"	/>
	<stop	lane="49157398#3_0"  endPos="-2"	duration="9.2"	/>
	<stop	lane="79091803#1_0"  endPos="-2"	duration="9.2"	/>
	<stop	lane="79091803#2_0"  endPos="-2"	duration="9.2"	/>
	<stop	lane="79091803#3_0"  endPos="-2"	duration="9.2"	/>
	<stop	lane="76503806#2_0"  endPos="-2"	duration="9.2"	/>
	<stop	lane="76503806#3_0"  endPos="-2"	duration="9.2"	/> -->
</vehicle>

<vehicle id="2" route="route2_1" type="TAXI_3" depart="0.00" departPos="0.00">
	 
	<!-- off-peak hour -->
		<!-- Stop passengers -->
		<stop	lane="932018780#8_0"  endPos="30.14"	duration="60.6"	/>
		
		<!-- Traffic congestion -->
		
		
		<!-- Police officer -->
		
		
		<!-- Traffic congestion -->
		
		
		<!-- Stop signs -->
		<stop	lane="788613104#2_0" endPos="-2"	duration="20.5"	/>
		<stop	lane="788613104#3_0" endPos="-2"	duration="20.5"	/>
		<stop	lane="788613104#4_0" endPos="-2"	duration="20.5"	/>
		<stop	lane="633072642#0_0" endPos="-2"	duration="20.5"	/>

		
		<!-- Stop passengers -->
		<stop	lane="-268532188#2_0"  endPos="42.68"	duration="60.6"	/>  
		
	<!--    
				rush hour
	Traficc congestion
	<stop	lane="74918635#8_0"	 endPos="44.79"	duration="25.2" />
	<stop	lane="74918635#9_0"	 endPos="50.87"	duration="25.2" />
	Police officer
	<stop	lane="74918635#9_0"	 endPos="-2"	duration="43" />
	Traffic congestion
	<stop	lane="79091947#4_0"	 endPos="45.16"	duration="25.2" />
	
	-->
</vehicle>
</routes>