<?xml version="1.0" encoding="UTF-8"?>


<routes xmlns:xsi="http://www.w3.org/2001/XMLSchema-instance" xsi:noNamespaceSchemaLocation="http://sumo.dlr.de/xsd/routes_file.xsd">
	
    <vType id="TAXI_1" guiShape="passenger/sedan" 	  maxSpeed="16.67" accel="1.9" decel="3" length="4.370" width="1.700" emissionClass="HBEFA4/PC_petrol_Euro-2" color="255,255,0"/>
	<vType id="TAXI_2" guiShape="passenger/sedan"     maxSpeed="16.67" accel="1.9" decel="3" length="4.370" width="1.700" emissionClass="HBEFA3/PC_G_EU3" color="255,255,0"/>
	<vType id="TAXI_3" guiShape="passenger/sedan"     maxSpeed="16.67" accel="1.9" decel="3" length="4.370" width="1.700" emissionClass="HBEFA3/PC_G_EU4" color="255,255,0"/>
	<vType id="TAXI_4" guiShape="passenger/sedan"     maxSpeed="16.67" accel="1.9" decel="3" length="4.370" width="1.700" emissionClass="HBEFA3/PC_G_EU5" color="255,255,0"/>
	<vType id="TAXI_5" guiShape="passenger/sedan"     maxSpeed="16.67" accel="1.9" decel="3" length="4.370" width="1.700" emissionClass="HBEFA3/PC_G_EU6" color="255,255,0"/>
	

	<route id="route5_1" 
	edges="	503110276#4		-79091721#5		-79091721#4		-79091721#3
			-79091721#2		-79091721#1		-79091721#0		1002973601
			626983749#0		626983749#1		626983749#2		626983749#3
			626983749#4		626983749#5		626983749#6		626983749#7
			626983749#8		626983749#9		626983749#10	626983749#11
			626983749#12	626983749#13	1005178530		-79091859#5	
			-626983748		-79091811#3		-79091963#4		-79091963#3
			-79091963#2		-79091963#1		-79091963#0		297382759#5
			297382759#6		-91859833#1		79092040#0		79092040#1
			79092040#2		79092040#3		91859862#7		91859807#1
			91859807#2		91859807#3		96314896		96314892
			96314891#0		96314891#1		96314891#2		96314891#3
			96314891#4		91859836		419628732#1		419628732#2
			419628732#3		419628732#4		419628732#5		419628732#6
			572979009#5		74842971#0		74842971#1		893394228#0
			893394228#1		893394230		893393727		893392725#0
			893392725#1		893392723		74920154#0		74920154#1		
			74920154#2		74920154#3		74920154#4		74920154#5
			74920154#6		74920154#7		48398786#7		48398786#8
			48398786#9		48398786#0		48398786#1		48562798#0
			48562798#1		48562798#2		48562798#3		48562798#4
			48562798#5 		90972291		90972289		142724424#1
			48563008#1		48563008#2		48563008#3		48563008#4
			48563010#0		48563010#1		91393352#0		91393352#1
			91393352#2		91393352#3		91393352#4		91393352#5
			91393352#6		91393352#7		91393352#8		797569048#0
			797569048#1		797569048#2		797569048#3		-107286289#13
			-107286289#12	-107286289#11	-107286289#10	-107286289#9
			-107286289#8	-107286291#5	-107286291#4	-107286291#3	">
	</route>

		
<vehicle id="1" route="route5_1" type="TAXI_1" depart="0.00" departPos="0.00">			
	<stop	lane="503110276#4_0"  endPos="13.06"	duration="60.6"	/>
	<stop	lane="-107286291#3_0"  endPos="-5"	duration="60.6"	/>
</vehicle>

</routes>