<configuration>

<input>
<net-file value="../../pasto_network.net.xml"/>
<route-files value="../../routes_files2/route6/route6_5.rou.xml"/>
</input>

<emissions>
    <emissions.volumetric-fuel value="true"/>
</emissions>

<time>
<begin value="0"/>
<end value="2000"/>
</time>

</configuration>