<?xml version="1.0" encoding="UTF-8"?>


<routes xmlns:xsi="http://www.w3.org/2001/XMLSchema-instance" xsi:noNamespaceSchemaLocation="http://sumo.dlr.de/xsd/routes_file.xsd">
	
    <vType id="TAXI_1" guiShape="passenger/sedan" 	  maxSpeed="16.67" accel="1.9" decel="3" length="4.370" width="1.700" emissionClass="HBEFA3/PC_G_EU2" color="255,255,0"/>
	<vType id="TAXI_2" guiShape="passenger/sedan"     maxSpeed="16.67" accel="1.9" decel="3" length="4.370" width="1.700" emissionClass="HBEFA3/PC_G_EU3" color="255,255,0"/>
	<vType id="TAXI_3" guiShape="passenger/sedan"     maxSpeed="16.67" accel="1.9" decel="3" length="4.370" width="1.700" emissionClass="HBEFA3/PC_G_EU4" color="255,255,0"/>
	<vType id="TAXI_4" guiShape="passenger/sedan"     maxSpeed="16.67" accel="1.9" decel="3" length="4.370" width="1.700" emissionClass="HBEFA4/PC_petrol_Euro-5" color="255,255,0"/>
	<vType id="TAXI_5" guiShape="passenger/sedan"     maxSpeed="16.67" accel="1.9" decel="3" length="4.370" width="1.700" emissionClass="HBEFA3/PC_G_EU6" color="255,255,0"/>
	
	<route id="route2_1" edges="932018780#8 	932018780#9	 91859768#3	 74918635#8
								74918635#9		79091947#4	79091947#5	79091947#6
								788613104#0		788613104#1	788613104#2	788613104#3
								788613104#4		633072642#0	633072642#1 633072642#2
								633072642#3		48870204#6	48870204#7	48870204#8
								76391869#2		76391869#3 633036928#0	633036928#1
								633036928#2 	633036928#3	96379264	375278864#10
								375278864#11   -268532188#2 ">
	</route> 

<vehicle id="4" route="route2_1" type="TAXI_4" depart="0.00" departPos="0.00">
	<stop	lane="932018780#8_0"  endPos="30.14"	duration="60.6"	/>
	<stop	lane="74918635#8_0"	 endPos="44.79"	duration="25.2" />
	<stop	lane="74918635#9_0"	 endPos="50.87"	duration="25.2" />
	<stop	lane="74918635#9_0"	 endPos="-2"	duration="43" />
	<stop	lane="79091947#4_0"	 endPos="45.16"	duration="25.2" />
	<stop	lane="788613104#2_0" endPos="-2"	duration="20.5"	/>
	<stop	lane="788613104#3_0" endPos="-2"	duration="20.5"	/>
	<stop	lane="788613104#4_0" endPos="-2"	duration="20.5"	/>
	<stop	lane="633072642#0_0" endPos="-2"	duration="20.5"	/>
	<stop	lane="-268532188#2_0"  endPos="42.68"	duration="60.6"	/>  
	
</vehicle>

</routes>