<?xml version="1.0" encoding="UTF-8"?>

<!-- generated on 2024-03-09 09:12:58.358973 by randomTrips.py v1_19_0+0000-baa66a0f364
<configuration>
    <net-file value="pasto_network.net.xml"/>
    <output-trip-file value="taxi.trips.xml"/>
    <prefix value="T"/>
    <vehicle-class value="passenger"/>
    <end value="3200.0"/>
</configuration>
-->

<routes xmlns:xsi="http://www.w3.org/2001/XMLSchema-instance" xsi:noNamespaceSchemaLocation="http://sumo.dlr.de/xsd/routes_file.xsd">
    <vType id="T_passenger" vClass="passenger"/>
    <trip id="T0" depart="0.00" from="626962593" to="-107286406#5" type="T_passenger"/>
    <trip id="T1" depart="1.00" from="-79536614#6" to="-79091976#1" type="T_passenger"/>
    <trip id="T2" depart="2.00" from="79091800#0" to="78046883#2" type="T_passenger"/>
    <trip id="T3" depart="3.00" from="821903504" to="-48135818#0" type="T_passenger"/>
    <trip id="T4" depart="4.00" from="1005747020#0" to="-108333920#0" type="T_passenger"/>
    <trip id="T5" depart="5.00" from="-79091849#4" to="37182425#4" type="T_passenger"/>
    <trip id="T6" depart="6.00" from="-107286410#2" to="-79091727#12" type="T_passenger"/>
    <trip id="T7" depart="7.00" from="633072642#5" to="48268326#0" type="T_passenger"/>
    <trip id="T8" depart="8.00" from="-79091859#0" to="540970676#0" type="T_passenger"/>
    <trip id="T9" depart="9.00" from="79536407#3" to="-1007213037#1" type="T_passenger"/>
    <trip id="T10" depart="10.00" from="79536362#20" to="78518713" type="T_passenger"/>
    <trip id="T11" depart="11.00" from="-821911213" to="-78046716#5" type="T_passenger"/>
    <trip id="T12" depart="12.00" from="893394227" to="-821961692#6" type="T_passenger"/>
    <trip id="T13" depart="13.00" from="-48259121" to="-48514961#20" type="T_passenger"/>
    <trip id="T14" depart="14.00" from="79537221#3" to="571386790#1" type="T_passenger"/>
    <trip id="T15" depart="15.00" from="79536362#38" to="79091813#2" type="T_passenger"/>
    <trip id="T16" depart="16.00" from="435540883#0" to="91759956#5" type="T_passenger"/>
    <trip id="T17" depart="17.00" from="-824670787#1" to="48375932" type="T_passenger"/>
    <trip id="T18" depart="18.00" from="79536842#12" to="572108382" type="T_passenger"/>
    <trip id="T19" depart="19.00" from="79537518#4" to="48981800#0" type="T_passenger"/>
    <trip id="T20" depart="20.00" from="78335873#2" to="-247462318#0" type="T_passenger"/>
    <trip id="T21" depart="21.00" from="-79091942#0" to="-79537226" type="T_passenger"/>
    <trip id="T22" depart="22.00" from="-296788538#3" to="-79092105#3" type="T_passenger"/>
    <trip id="T23" depart="23.00" from="-48562222#7" to="-79536872#1" type="T_passenger"/>
    <trip id="T24" depart="24.00" from="572152833#0" to="-824684674" type="T_passenger"/>
    <trip id="T25" depart="25.00" from="-824637178" to="-79091834#0" type="T_passenger"/>
    <trip id="T26" depart="26.00" from="-79536334#0" to="824894663" type="T_passenger"/>
    <trip id="T27" depart="27.00" from="633036938#1" to="571465480#5" type="T_passenger"/>
    <trip id="T28" depart="28.00" from="-78046847" to="79091811#2" type="T_passenger"/>
    <trip id="T29" depart="29.00" from="-78046765#1" to="-894445546#3" type="T_passenger"/>
    <trip id="T30" depart="30.00" from="95412526" to="633072643#4" type="T_passenger"/>
    <trip id="T31" depart="31.00" from="48243130#5" to="78335806#9" type="T_passenger"/>
    <trip id="T32" depart="32.00" from="79537120#0" to="79535929#1" type="T_passenger"/>
    <trip id="T33" depart="33.00" from="-79091958#0" to="-108333953#0" type="T_passenger"/>
    <trip id="T34" depart="34.00" from="-819565354" to="-79536638" type="T_passenger"/>
    <trip id="T35" depart="35.00" from="-79091762#6" to="88371825#1" type="T_passenger"/>
    <trip id="T36" depart="36.00" from="821229024#3" to="-821508740#1" type="T_passenger"/>
    <trip id="T37" depart="37.00" from="73569165#5" to="-98356941#0" type="T_passenger"/>
    <trip id="T38" depart="38.00" from="822358805#1" to="247462337#0" type="T_passenger"/>
    <trip id="T39" depart="39.00" from="-79536283#0" to="-79536024#1" type="T_passenger"/>
    <trip id="T40" depart="40.00" from="48268641#0" to="-79536453#0" type="T_passenger"/>
    <trip id="T41" depart="41.00" from="48562796#0" to="821946963" type="T_passenger"/>
    <trip id="T42" depart="42.00" from="-91399066#1" to="-79091934" type="T_passenger"/>
    <trip id="T43" depart="43.00" from="98354380" to="375278864#9" type="T_passenger"/>
    <trip id="T44" depart="44.00" from="-48205157#1" to="-247462326#5" type="T_passenger"/>
    <trip id="T45" depart="45.00" from="-503110289#4" to="580612249" type="T_passenger"/>
    <trip id="T46" depart="46.00" from="79536099#0" to="107286337#3" type="T_passenger"/>
    <trip id="T47" depart="47.00" from="-247535953#1" to="-91387727#1" type="T_passenger"/>
    <trip id="T48" depart="48.00" from="96321160" to="47908288#1" type="T_passenger"/>
    <trip id="T49" depart="49.00" from="916101942" to="798416902#3" type="T_passenger"/>
    <trip id="T50" depart="50.00" from="-105731594#0" to="79091736#1" type="T_passenger"/>
    <trip id="T51" depart="51.00" from="78046848#3" to="48136201#18" type="T_passenger"/>
    <trip id="T52" depart="52.00" from="-79536328#4" to="633072645#2" type="T_passenger"/>
    <trip id="T53" depart="53.00" from="-530397328#3" to="108333920#7" type="T_passenger"/>
    <trip id="T54" depart="54.00" from="108333971#0" to="88750515#0" type="T_passenger"/>
    <trip id="T55" depart="55.00" from="821229023#1" to="-79536461" type="T_passenger"/>
    <trip id="T56" depart="56.00" from="247540438#6" to="-78335818#1" type="T_passenger"/>
    <trip id="T57" depart="57.00" from="822259672#2" to="821233821" type="T_passenger"/>
    <trip id="T58" depart="58.00" from="-79537252" to="633057484" type="T_passenger"/>
    <trip id="T59" depart="59.00" from="571281870#1" to="-76503798#0" type="T_passenger"/>
    <trip id="T60" depart="60.00" from="79092005#3" to="48205255" type="T_passenger"/>
    <trip id="T61" depart="61.00" from="79535816#4" to="47913079#5" type="T_passenger"/>
    <trip id="T62" depart="62.00" from="-1003416805" to="-821900518#1" type="T_passenger"/>
    <trip id="T63" depart="63.00" from="-107286337#0" to="824653220#2" type="T_passenger"/>
    <trip id="T64" depart="64.00" from="821246157#1" to="79537093#13" type="T_passenger"/>
    <trip id="T65" depart="65.00" from="-79537492#2" to="-247478987#6" type="T_passenger"/>
    <trip id="T66" depart="66.00" from="821236272" to="88520208#0" type="T_passenger"/>
    <trip id="T67" depart="67.00" from="-436185379#1" to="247540439#7" type="T_passenger"/>
    <trip id="T68" depart="68.00" from="-247536035#3" to="79092099#4" type="T_passenger"/>
    <trip id="T69" depart="69.00" from="79092037#1" to="-572037590#0" type="T_passenger"/>
    <trip id="T70" depart="70.00" from="247462341#1" to="48287809#8" type="T_passenger"/>
    <trip id="T71" depart="71.00" from="-79536285" to="821250384" type="T_passenger"/>
    <trip id="T72" depart="72.00" from="1005800376" to="-79091856#14" type="T_passenger"/>
    <trip id="T73" depart="73.00" from="436441827#1" to="79091814#2" type="T_passenger"/>
    <trip id="T74" depart="74.00" from="-79091682#3" to="-821229028#1" type="T_passenger"/>
    <trip id="T75" depart="75.00" from="96321140#1" to="74917385#1" type="T_passenger"/>
    <trip id="T76" depart="76.00" from="107286346#0" to="430660462#4" type="T_passenger"/>
    <trip id="T77" depart="77.00" from="-571374836#3" to="-79091988#0" type="T_passenger"/>
    <trip id="T78" depart="78.00" from="-821907226#0" to="530397325#0" type="T_passenger"/>
    <trip id="T79" depart="79.00" from="-79091963#1" to="-79091943" type="T_passenger"/>
    <trip id="T80" depart="80.00" from="-247540439#3" to="626983749#1" type="T_passenger"/>
    <trip id="T81" depart="81.00" from="-79091957#0" to="821970511#1" type="T_passenger"/>
    <trip id="T82" depart="82.00" from="79537482#1" to="-247549480#3" type="T_passenger"/>
    <trip id="T83" depart="83.00" from="-79092045#2" to="78046819" type="T_passenger"/>
    <trip id="T84" depart="84.00" from="-79091807#5" to="-572106607#6" type="T_passenger"/>
    <trip id="T85" depart="85.00" from="824692788#0" to="48562798#0" type="T_passenger"/>
    <trip id="T86" depart="86.00" from="247462319#4" to="79536115" type="T_passenger"/>
    <trip id="T87" depart="87.00" from="79536362#8" to="-79091646#5" type="T_passenger"/>
    <trip id="T88" depart="88.00" from="-48395930#2" to="107286419#12" type="T_passenger"/>
    <trip id="T89" depart="89.00" from="1005841127" to="247478957#2" type="T_passenger"/>
    <trip id="T90" depart="90.00" from="79091727#9" to="78046858#0" type="T_passenger"/>
    <trip id="T91" depart="91.00" from="92022564" to="-48562292#0" type="T_passenger"/>
    <trip id="T92" depart="92.00" from="-91859792" to="-821965450#3" type="T_passenger"/>
    <trip id="T93" depart="93.00" from="79537518#3" to="-79536086#0" type="T_passenger"/>
    <trip id="T94" depart="94.00" from="-78335863#0" to="167671619#31" type="T_passenger"/>
    <trip id="T95" depart="95.00" from="1005747018#2" to="-79536880#0" type="T_passenger"/>
    <trip id="T96" depart="96.00" from="-79535889#3" to="824637179#0" type="T_passenger"/>
    <trip id="T97" depart="97.00" from="107286392#2" to="798490082" type="T_passenger"/>
    <trip id="T98" depart="98.00" from="48136193#0" to="-247462351#5" type="T_passenger"/>
    <trip id="T99" depart="99.00" from="99555833#2" to="79537160#2" type="T_passenger"/>
    <trip id="T100" depart="100.00" from="91399077#2" to="824648946#1" type="T_passenger"/>
    <trip id="T101" depart="101.00" from="79537253#0" to="-78046857#2" type="T_passenger"/>
    <trip id="T102" depart="102.00" from="247478987#5" to="-79091866#1" type="T_passenger"/>
    <trip id="T103" depart="103.00" from="-915729878" to="-247478989#7" type="T_passenger"/>
    <trip id="T104" depart="104.00" from="-824671352" to="932018780#14" type="T_passenger"/>
    <trip id="T105" depart="105.00" from="-79536302#0" to="79536106#2" type="T_passenger"/>
    <trip id="T106" depart="106.00" from="108452867#3" to="107286346#3" type="T_passenger"/>
    <trip id="T107" depart="107.00" from="893394228#0" to="96321145#0" type="T_passenger"/>
    <trip id="T108" depart="108.00" from="48235658#2" to="79091726#0" type="T_passenger"/>
    <trip id="T109" depart="109.00" from="-735027521#1" to="-79537449#5" type="T_passenger"/>
    <trip id="T110" depart="110.00" from="91399076#2" to="49156614#3" type="T_passenger"/>
    <trip id="T111" depart="111.00" from="445512536#16" to="79091961#0" type="T_passenger"/>
    <trip id="T112" depart="112.00" from="-247478974#2" to="49188661#2" type="T_passenger"/>
    <trip id="T113" depart="113.00" from="247540445#2" to="79537512#0" type="T_passenger"/>
    <trip id="T114" depart="114.00" from="-74917380#4" to="908399098#1" type="T_passenger"/>
    <trip id="T115" depart="115.00" from="-297923440#3" to="-78518707#0" type="T_passenger"/>
    <trip id="T116" depart="116.00" from="49157402#1" to="78046873#5" type="T_passenger"/>
    <trip id="T117" depart="117.00" from="-79092015#2" to="-571384884#0" type="T_passenger"/>
    <trip id="T118" depart="118.00" from="821888944#0" to="-79536018#1" type="T_passenger"/>
    <trip id="T119" depart="119.00" from="49156619#5" to="572110772" type="T_passenger"/>
    <trip id="T120" depart="120.00" from="1005531429" to="49157544#3" type="T_passenger"/>
    <trip id="T121" depart="121.00" from="375276880#3" to="824684673#0" type="T_passenger"/>
    <trip id="T122" depart="122.00" from="-79091713#1" to="79091711#1" type="T_passenger"/>
    <trip id="T123" depart="123.00" from="-79092049#6" to="-98356941#3" type="T_passenger"/>
    <trip id="T124" depart="124.00" from="77842343" to="-79537496#3" type="T_passenger"/>
    <trip id="T125" depart="125.00" from="-819578580#1" to="79091989#1" type="T_passenger"/>
    <trip id="T126" depart="126.00" from="-247549486#0" to="247462329#5" type="T_passenger"/>
    <trip id="T127" depart="127.00" from="98356943#3" to="96321157" type="T_passenger"/>
    <trip id="T128" depart="128.00" from="-247549491#0" to="-79091861#0" type="T_passenger"/>
    <trip id="T129" depart="129.00" from="-79536302#0" to="824678523#2" type="T_passenger"/>
    <trip id="T130" depart="130.00" from="821515470" to="821635962" type="T_passenger"/>
    <trip id="T131" depart="131.00" from="-824636493#0" to="-78046786#3" type="T_passenger"/>
    <trip id="T132" depart="132.00" from="79536925#3" to="788589581#0" type="T_passenger"/>
    <trip id="T133" depart="133.00" from="571364561#2" to="937918433#1" type="T_passenger"/>
    <trip id="T134" depart="134.00" from="701697837#6" to="-1007548967" type="T_passenger"/>
    <trip id="T135" depart="135.00" from="79536619" to="-79537492#1" type="T_passenger"/>
    <trip id="T136" depart="136.00" from="74920160#6" to="84247684#2" type="T_passenger"/>
    <trip id="T137" depart="137.00" from="-572098377#1" to="-571302565" type="T_passenger"/>
    <trip id="T138" depart="138.00" from="-49157406#2" to="48376054#11" type="T_passenger"/>
    <trip id="T139" depart="139.00" from="-79536505#0" to="571388362#1" type="T_passenger"/>
    <trip id="T140" depart="140.00" from="79091648#5" to="-79091762#8" type="T_passenger"/>
    <trip id="T141" depart="141.00" from="572149541#2" to="-79536478#1" type="T_passenger"/>
    <trip id="T142" depart="142.00" from="247478997#3" to="821970510" type="T_passenger"/>
    <trip id="T143" depart="143.00" from="79537183#5" to="-48268656#0" type="T_passenger"/>
    <trip id="T144" depart="144.00" from="1005841127" to="-79536823#1" type="T_passenger"/>
    <trip id="T145" depart="145.00" from="-1005490559" to="79535836#3" type="T_passenger"/>
    <trip id="T146" depart="146.00" from="576542800#0" to="-79536418#2" type="T_passenger"/>
    <trip id="T147" depart="147.00" from="79091832#3" to="48359763#0" type="T_passenger"/>
    <trip id="T148" depart="148.00" from="102150869#0" to="-102150881" type="T_passenger"/>
    <trip id="T149" depart="149.00" from="-247549499#5" to="821883634" type="T_passenger"/>
    <trip id="T150" depart="150.00" from="821961692#3" to="48268326#9" type="T_passenger"/>
    <trip id="T151" depart="151.00" from="79536934#0" to="49157412#12" type="T_passenger"/>
    <trip id="T152" depart="152.00" from="-59861597#2" to="-572027724#3" type="T_passenger"/>
    <trip id="T153" depart="153.00" from="-79537501#0" to="821950257#1" type="T_passenger"/>
    <trip id="T154" depart="154.00" from="79536150#1" to="798416902#2" type="T_passenger"/>
    <trip id="T155" depart="155.00" from="821939995#1" to="-79091836#4" type="T_passenger"/>
    <trip id="T156" depart="156.00" from="-79535886#2" to="-49156614#7" type="T_passenger"/>
    <trip id="T157" depart="157.00" from="79535856#1" to="821885336" type="T_passenger"/>
    <trip id="T158" depart="158.00" from="-935787571#0" to="572115252#0" type="T_passenger"/>
    <trip id="T159" depart="159.00" from="-735024823" to="824658520#2" type="T_passenger"/>
    <trip id="T160" depart="160.00" from="797103179#5" to="91859804#2" type="T_passenger"/>
    <trip id="T161" depart="161.00" from="79536428" to="821648793" type="T_passenger"/>
    <trip id="T162" depart="162.00" from="-107286394#3" to="79091864" type="T_passenger"/>
    <trip id="T163" depart="163.00" from="-821657666" to="824669573#1" type="T_passenger"/>
    <trip id="T164" depart="164.00" from="79536319#1" to="819578580#6" type="T_passenger"/>
    <trip id="T165" depart="165.00" from="79536428" to="-79536614#5" type="T_passenger"/>
    <trip id="T166" depart="166.00" from="79535979#5" to="-530397325#0" type="T_passenger"/>
    <trip id="T167" depart="167.00" from="819578580#3" to="79711769" type="T_passenger"/>
    <trip id="T168" depart="168.00" from="-79091877#2" to="79536767#7" type="T_passenger"/>
    <trip id="T169" depart="169.00" from="142724413#6" to="-797703535#2" type="T_passenger"/>
    <trip id="T170" depart="170.00" from="79536146#17" to="-79092017#1" type="T_passenger"/>
    <trip id="T171" depart="171.00" from="-107286383#2" to="-79091675#1" type="T_passenger"/>
    <trip id="T172" depart="172.00" from="-821623980" to="819578582#1" type="T_passenger"/>
    <trip id="T173" depart="173.00" from="91393352#8" to="-79536889#0" type="T_passenger"/>
    <trip id="T174" depart="174.00" from="626983749#1" to="1005178530" type="T_passenger"/>
    <trip id="T175" depart="175.00" from="91908572#11" to="48136200#1" type="T_passenger"/>
    <trip id="T176" depart="176.00" from="869736323" to="-571301729" type="T_passenger"/>
    <trip id="T177" depart="177.00" from="915505848#0" to="-78335818#0" type="T_passenger"/>
    <trip id="T178" depart="178.00" from="90972280#6" to="-79536574#0" type="T_passenger"/>
    <trip id="T179" depart="179.00" from="-503110275#11" to="108333920#4" type="T_passenger"/>
    <trip id="T180" depart="180.00" from="79091727#13" to="-821250383" type="T_passenger"/>
    <trip id="T181" depart="181.00" from="540970702#0" to="405395786#2" type="T_passenger"/>
    <trip id="T182" depart="182.00" from="-835899382#1" to="48871842#2" type="T_passenger"/>
    <trip id="T183" depart="183.00" from="-79536024#1" to="79091652#4" type="T_passenger"/>
    <trip id="T184" depart="184.00" from="-1005180357#2" to="824646403#1" type="T_passenger"/>
    <trip id="T185" depart="185.00" from="436185379#0" to="79091727#3" type="T_passenger"/>
    <trip id="T186" depart="186.00" from="79091836#3" to="78046842#2" type="T_passenger"/>
    <trip id="T187" depart="187.00" from="-824617715" to="-247540439#14" type="T_passenger"/>
    <trip id="T188" depart="188.00" from="75198493#5" to="-821939993#10" type="T_passenger"/>
    <trip id="T189" depart="189.00" from="-798416902#3" to="79537449#2" type="T_passenger"/>
    <trip id="T190" depart="190.00" from="79091672#0" to="-79537501#2" type="T_passenger"/>
    <trip id="T191" depart="191.00" from="-79537526" to="1007213037#0" type="T_passenger"/>
    <trip id="T192" depart="192.00" from="-91859787" to="-79537431#0" type="T_passenger"/>
    <trip id="T193" depart="193.00" from="-571423419#1" to="107286323#1" type="T_passenger"/>
    <trip id="T194" depart="194.00" from="88370686#0" to="78046885#1" type="T_passenger"/>
    <trip id="T195" depart="195.00" from="821951591" to="572103455" type="T_passenger"/>
    <trip id="T196" depart="196.00" from="-79537331#1" to="48268653#1" type="T_passenger"/>
    <trip id="T197" depart="197.00" from="-1003385065" to="-79537176#2" type="T_passenger"/>
    <trip id="T198" depart="198.00" from="107286284#0" to="49156617#3" type="T_passenger"/>
    <trip id="T199" depart="199.00" from="73569155#2" to="247462389#5" type="T_passenger"/>
    <trip id="T200" depart="200.00" from="107286381#1" to="-79091866#0" type="T_passenger"/>
    <trip id="T201" depart="201.00" from="247462325" to="821961692#4" type="T_passenger"/>
    <trip id="T202" depart="202.00" from="79536149#1" to="-78046882#4" type="T_passenger"/>
    <trip id="T203" depart="203.00" from="-435540896" to="419628730#1" type="T_passenger"/>
    <trip id="T204" depart="204.00" from="572146504#1" to="-821950259" type="T_passenger"/>
    <trip id="T205" depart="205.00" from="79536651#3" to="79091987#2" type="T_passenger"/>
    <trip id="T206" depart="206.00" from="78046744#1" to="-79091987#6" type="T_passenger"/>
    <trip id="T207" depart="207.00" from="-79091661" to="-107286403" type="T_passenger"/>
    <trip id="T208" depart="208.00" from="-79535768#2" to="247535953#3" type="T_passenger"/>
    <trip id="T209" depart="209.00" from="79537271" to="-247549494#1" type="T_passenger"/>
    <trip id="T210" depart="210.00" from="1002548496" to="626983745#2" type="T_passenger"/>
    <trip id="T211" depart="211.00" from="-78518762#2" to="78335883#5" type="T_passenger"/>
    <trip id="T212" depart="212.00" from="247535991#1" to="-79535963#0" type="T_passenger"/>
    <trip id="T213" depart="213.00" from="73579003#0" to="-1005757475" type="T_passenger"/>
    <trip id="T214" depart="214.00" from="79091919#3" to="79535816#4" type="T_passenger"/>
    <trip id="T215" depart="215.00" from="-49156619#2" to="107286371#4" type="T_passenger"/>
    <trip id="T216" depart="216.00" from="-78046881#6" to="893436349#3" type="T_passenger"/>
    <trip id="T217" depart="217.00" from="32951381#0" to="-247462348#4" type="T_passenger"/>
    <trip id="T218" depart="218.00" from="-79535879#0" to="79537449#7" type="T_passenger"/>
    <trip id="T219" depart="219.00" from="109071666#1" to="79536409#2" type="T_passenger"/>
    <trip id="T220" depart="220.00" from="76391869#2" to="95409161" type="T_passenger"/>
    <trip id="T221" depart="221.00" from="49157405#0" to="88740943#0" type="T_passenger"/>
    <trip id="T222" depart="222.00" from="821897359#0" to="572034805#3" type="T_passenger"/>
    <trip id="T223" depart="223.00" from="79091662#0" to="366015251#7" type="T_passenger"/>
    <trip id="T224" depart="224.00" from="79536855#0" to="48268653#0" type="T_passenger"/>
    <trip id="T225" depart="225.00" from="821939992#1" to="79091932#0" type="T_passenger"/>
    <trip id="T226" depart="226.00" from="247462334#0" to="-79536350#2" type="T_passenger"/>
    <trip id="T227" depart="227.00" from="-79535816#7" to="633036938#0" type="T_passenger"/>
    <trip id="T228" depart="228.00" from="79092037#1" to="435398051" type="T_passenger"/>
    <trip id="T229" depart="229.00" from="572104343" to="-79536777#5" type="T_passenger"/>
    <trip id="T230" depart="230.00" from="-247557158" to="-79537149#4" type="T_passenger"/>
    <trip id="T231" depart="231.00" from="-79536461" to="-821646371" type="T_passenger"/>
    <trip id="T232" depart="232.00" from="438341400#3" to="-572150038#0" type="T_passenger"/>
    <trip id="T233" depart="233.00" from="-79091978#0" to="78335870" type="T_passenger"/>
    <trip id="T234" depart="234.00" from="78335883#4" to="-247535987#0" type="T_passenger"/>
    <trip id="T235" depart="235.00" from="-95409160#1" to="48243130#4" type="T_passenger"/>
    <trip id="T236" depart="236.00" from="1005153123" to="-79091809#0" type="T_passenger"/>
    <trip id="T237" depart="237.00" from="1005547410" to="821969135#1" type="T_passenger"/>
    <trip id="T238" depart="238.00" from="48562548#4" to="78335879#2" type="T_passenger"/>
    <trip id="T239" depart="239.00" from="79537449#4" to="79535694#0" type="T_passenger"/>
    <trip id="T240" depart="240.00" from="-824684662" to="-1005778648" type="T_passenger"/>
    <trip id="T241" depart="241.00" from="-821962108" to="79092005#1" type="T_passenger"/>
    <trip id="T242" depart="242.00" from="79537358#3" to="88750495#1" type="T_passenger"/>
    <trip id="T243" depart="243.00" from="1005506529" to="79091958#2" type="T_passenger"/>
    <trip id="T244" depart="244.00" from="47997597#7" to="571386697#0" type="T_passenger"/>
    <trip id="T245" depart="245.00" from="-79091859#2" to="-79091936#1" type="T_passenger"/>
    <trip id="T246" depart="246.00" from="107286323#1" to="-108333885" type="T_passenger"/>
    <trip id="T247" depart="247.00" from="-821901176" to="782472049#2" type="T_passenger"/>
    <trip id="T248" depart="248.00" from="-91908567" to="-78046853#0" type="T_passenger"/>
    <trip id="T249" depart="249.00" from="176539406#15" to="-572027724#5" type="T_passenger"/>
    <trip id="T250" depart="250.00" from="572024626#1" to="-107286419#5" type="T_passenger"/>
    <trip id="T251" depart="251.00" from="-88750497" to="48458070#4" type="T_passenger"/>
    <trip id="T252" depart="252.00" from="-107286417#1" to="688682283#5" type="T_passenger"/>
    <trip id="T253" depart="253.00" from="-572102640#1" to="247462360#0" type="T_passenger"/>
    <trip id="T254" depart="254.00" from="-247462347#3" to="-893436346" type="T_passenger"/>
    <trip id="T255" depart="255.00" from="-79091772#1" to="-821908860#2" type="T_passenger"/>
    <trip id="T256" depart="256.00" from="79091995#0" to="-893436346" type="T_passenger"/>
    <trip id="T257" depart="257.00" from="79091926" to="79537093#16" type="T_passenger"/>
    <trip id="T258" depart="258.00" from="-79535963#2" to="-431248762" type="T_passenger"/>
    <trip id="T259" depart="259.00" from="-107286336#6" to="48205256" type="T_passenger"/>
    <trip id="T260" depart="260.00" from="99555871#0" to="-824617720#1" type="T_passenger"/>
    <trip id="T261" depart="261.00" from="633072643#10" to="79536039#0" type="T_passenger"/>
    <trip id="T262" depart="262.00" from="633072647#5" to="79092013#1" type="T_passenger"/>
    <trip id="T263" depart="263.00" from="88740895#0" to="-79091727#7" type="T_passenger"/>
    <trip id="T264" depart="264.00" from="-107286346#1" to="-762008453#4" type="T_passenger"/>
    <trip id="T265" depart="265.00" from="-571389201#2" to="78046820#6" type="T_passenger"/>
    <trip id="T266" depart="266.00" from="48287809#7" to="-79091924#3" type="T_passenger"/>
    <trip id="T267" depart="267.00" from="78335834#0" to="79535762#2" type="T_passenger"/>
    <trip id="T268" depart="268.00" from="-78046812#0" to="571426122#4" type="T_passenger"/>
    <trip id="T269" depart="269.00" from="79091882#0" to="-571291479#2" type="T_passenger"/>
    <trip id="T270" depart="270.00" from="79536669#0" to="91387721" type="T_passenger"/>
    <trip id="T271" depart="271.00" from="-49188674" to="-107286415#1" type="T_passenger"/>
    <trip id="T272" depart="272.00" from="-79711727#6" to="78046885#1" type="T_passenger"/>
    <trip id="T273" depart="273.00" from="893436349#3" to="-98356943#6" type="T_passenger"/>
    <trip id="T274" depart="274.00" from="788905220#0" to="-247557153#0" type="T_passenger"/>
    <trip id="T275" depart="275.00" from="78335725" to="580612248#1" type="T_passenger"/>
    <trip id="T276" depart="276.00" from="-48562548#8" to="79535874#10" type="T_passenger"/>
    <trip id="T277" depart="277.00" from="79537293#2" to="571376290" type="T_passenger"/>
    <trip id="T278" depart="278.00" from="-571374836#3" to="92022563#3" type="T_passenger"/>
    <trip id="T279" depart="279.00" from="79535889#0" to="-824300377#5" type="T_passenger"/>
    <trip id="T280" depart="280.00" from="102150872#3" to="-88370696#0" type="T_passenger"/>
    <trip id="T281" depart="281.00" from="247549486#2" to="-821972264#0" type="T_passenger"/>
    <trip id="T282" depart="282.00" from="79537269#3" to="79536855#2" type="T_passenger"/>
    <trip id="T283" depart="283.00" from="-49156614#6" to="908399098#2" type="T_passenger"/>
    <trip id="T284" depart="284.00" from="572152396" to="79537026#1" type="T_passenger"/>
    <trip id="T285" depart="285.00" from="78335908" to="108333937#14" type="T_passenger"/>
    <trip id="T286" depart="286.00" from="79091765#1" to="91387725#8" type="T_passenger"/>
    <trip id="T287" depart="287.00" from="-79536412#1" to="79536614#6" type="T_passenger"/>
    <trip id="T288" depart="288.00" from="436185376" to="247536044#3" type="T_passenger"/>
    <trip id="T289" depart="289.00" from="107286317" to="79091822#0" type="T_passenger"/>
    <trip id="T290" depart="290.00" from="-79536378#1" to="79537494#0" type="T_passenger"/>
    <trip id="T291" depart="291.00" from="79536855#3" to="-48135815#0" type="T_passenger"/>
    <trip id="T292" depart="292.00" from="821524255" to="-79535957#2" type="T_passenger"/>
    <trip id="T293" depart="293.00" from="167671619#4" to="572017438#4" type="T_passenger"/>
    <trip id="T294" depart="294.00" from="-824671352" to="-108333876#5" type="T_passenger"/>
    <trip id="T295" depart="295.00" from="79537314#1" to="-78335844#3" type="T_passenger"/>
    <trip id="T296" depart="296.00" from="-79091778#3" to="79536362#22" type="T_passenger"/>
    <trip id="T297" depart="297.00" from="-821911214" to="821640934#2" type="T_passenger"/>
    <trip id="T298" depart="298.00" from="78335847#20" to="-79536808" type="T_passenger"/>
    <trip id="T299" depart="299.00" from="-102150867#1" to="88528643" type="T_passenger"/>
    <trip id="T300" depart="300.00" from="-436185379#0" to="79091730" type="T_passenger"/>
    <trip id="T301" depart="301.00" from="247478997#4" to="79092049#0" type="T_passenger"/>
    <trip id="T302" depart="302.00" from="78335725" to="73573117#4" type="T_passenger"/>
    <trip id="T303" depart="303.00" from="247535953#1" to="79536302#1" type="T_passenger"/>
    <trip id="T304" depart="304.00" from="-48259161#0" to="-79091959#0" type="T_passenger"/>
    <trip id="T305" depart="305.00" from="78335739#1" to="-798955215#1" type="T_passenger"/>
    <trip id="T306" depart="306.00" from="48514961#16" to="247478998#5" type="T_passenger"/>
    <trip id="T307" depart="307.00" from="419628732#3" to="107286372#1" type="T_passenger"/>
    <trip id="T308" depart="308.00" from="79091869#0" to="-821939993#5" type="T_passenger"/>
    <trip id="T309" depart="309.00" from="78335863#4" to="-79536712#2" type="T_passenger"/>
    <trip id="T310" depart="310.00" from="-79535937#3" to="-571386790#2" type="T_passenger"/>
    <trip id="T311" depart="311.00" from="-78518712#0" to="-571384859#4" type="T_passenger"/>
    <trip id="T312" depart="312.00" from="435398047#7" to="79535628#1" type="T_passenger"/>
    <trip id="T313" depart="313.00" from="-78335818#1" to="-79091911#0" type="T_passenger"/>
    <trip id="T314" depart="314.00" from="247478970" to="79091764#1" type="T_passenger"/>
    <trip id="T315" depart="315.00" from="91859818#3" to="436441824" type="T_passenger"/>
    <trip id="T316" depart="316.00" from="-79536777#7" to="-48563025#7" type="T_passenger"/>
    <trip id="T317" depart="317.00" from="-78518748#0" to="-79092016" type="T_passenger"/>
    <trip id="T318" depart="318.00" from="-78335725" to="-107286302" type="T_passenger"/>
    <trip id="T319" depart="319.00" from="430667411" to="-79536777#1" type="T_passenger"/>
    <trip id="T320" depart="320.00" from="91859769#3" to="48376054#13" type="T_passenger"/>
    <trip id="T321" depart="321.00" from="78335820#4" to="-572017438#4" type="T_passenger"/>