<?xml version="1.0" encoding="UTF-8"?>

<!-- generated on 2024-03-06 17:00:49.530566 by randomTrips.py v1_19_0+0000-baa66a0f364
<configuration>
    <net-file value="pasto_network.net.xml"/>
    <end value="50.0"/>
</configuration>
-->

<routes xmlns:xsi="http://www.w3.org/2001/XMLSchema-instance" xsi:noNamespaceSchemaLocation="http://sumo.dlr.de/xsd/routes_file.xsd">
    <trip id="0" depart="0.00" from="626962593" to="-107286406#5"/>
    <trip id="1" depart="1.00" from="-79536614#6" to="-79091976#1"/>
    <trip id="2" depart="2.00" from="79091800#0" to="78046883#2"/>
    <trip id="3" depart="3.00" from="821903504" to="-48135818#0"/>
    <trip id="4" depart="4.00" from="1005747020#0" to="-108333920#0"/>
    <trip id="5" depart="5.00" from="-79091849#4" to="37182425#4"/>
    <trip id="6" depart="6.00" from="-107286410#2" to="-79091727#12"/>
    <trip id="7" depart="7.00" from="633072642#5" to="48268326#0"/>
    <trip id="8" depart="8.00" from="-79091859#0" to="540970676#0"/>
    <trip id="9" depart="9.00" from="79536407#3" to="-1007213037#1"/>
    <trip id="10" depart="10.00" from="79536362#20" to="78518713"/>
    <trip id="11" depart="11.00" from="-821911213" to="-78046716#5"/>
    <trip id="12" depart="12.00" from="893394227" to="-821961692#6"/>
    <trip id="13" depart="13.00" from="-48259121" to="-48514961#20"/>
    <trip id="14" depart="14.00" from="79537221#3" to="571386790#1"/>
    <trip id="15" depart="15.00" from="79536362#38" to="79091813#2"/>
    <trip id="16" depart="16.00" from="435540883#0" to="91759956#5"/>
    <trip id="17" depart="17.00" from="-824670787#1" to="48375932"/>
    <trip id="18" depart="18.00" from="79536842#12" to="572108382"/>
    <trip id="19" depart="19.00" from="79537518#4" to="48981800#0"/>
    <trip id="20" depart="20.00" from="78335873#2" to="-247462318#0"/>
    <trip id="21" depart="21.00" from="-79091942#0" to="-79537226"/>
    <trip id="22" depart="22.00" from="-296788538#3" to="-79092105#3"/>
    <trip id="23" depart="23.00" from="-48562222#7" to="-79536872#1"/>
    <trip id="24" depart="24.00" from="572152833#0" to="-824684674"/>
    <trip id="25" depart="25.00" from="-824637178" to="-79091834#0"/>
    <trip id="26" depart="26.00" from="-79536334#0" to="824894663"/>
    <trip id="27" depart="27.00" from="633036938#1" to="571465480#5"/>
    <trip id="28" depart="28.00" from="-78046847" to="79091811#2"/>
    <trip id="29" depart="29.00" from="-78046765#1" to="-894445546#3"/>
    <trip id="30" depart="30.00" from="95412526" to="633072643#4"/>
    <trip id="31" depart="31.00" from="48243130#5" to="78335806#9"/>
    <trip id="32" depart="32.00" from="79537120#0" to="79535929#1"/>
    <trip id="33" depart="33.00" from="-79091958#0" to="-108333953#0"/>
    <trip id="34" depart="34.00" from="-819565354" to="-79536638"/>
    <trip id="35" depart="35.00" from="-79091762#6" to="88371825#1"/>
    <trip id="36" depart="36.00" from="821229024#3" to="-821508740#1"/>
    <trip id="37" depart="37.00" from="73569165#5" to="-98356941#0"/>
    <trip id="38" depart="38.00" from="822358805#1" to="247462337#0"/>
    <trip id="39" depart="39.00" from="-79536283#0" to="-79536024#1"/>
    <trip id="40" depart="40.00" from="48268641#0" to="-79536453#0"/>
    <trip id="41" depart="41.00" from="48562796#0" to="821946963"/>
    <trip id="42" depart="42.00" from="-91399066#1" to="-79091934"/>
    <trip id="43" depart="43.00" from="98354380" to="375278864#9"/>
    <trip id="44" depart="44.00" from="-48205157#1" to="-247462326#5"/>
    <trip id="45" depart="45.00" from="-503110289#4" to="580612249"/>
    <trip id="46" depart="46.00" from="79536099#0" to="107286337#3"/>
    <trip id="47" depart="47.00" from="-247535953#1" to="-91387727#1"/>
    <trip id="48" depart="48.00" from="96321160" to="47908288#1"/>
    <trip id="49" depart="49.00" from="916101942" to="798416902#3"/>
</routes>
