<?xml version="1.0" encoding="UTF-8"?>


<routes xmlns:xsi="http://www.w3.org/2001/XMLSchema-instance" xsi:noNamespaceSchemaLocation="http://sumo.dlr.de/xsd/routes_file.xsd">
	
    <vType id="TAXI_1" guiShape="passenger/sedan" 	  maxSpeed="16.67" accel="1.9" decel="3" length="4.370" width="1.700" color="255,255,0"/>
	
	
	<route id="route2_1" edges="932018780#8 	932018780#9	 91859768#3	 74918635#8
								74918635#9		79091947#4	79091947#5	79091947#6
								788613104#0		788613104#1	788613104#2	788613104#3
								788613104#4		633072642#0	633072642#1 633072642#2
								633072642#3		48870204#6	48870204#7	48870204#8
								76391869#2		76391869#3 633036928#0	633036928#1
								633036928#2 	633036928#3	96379264	375278864#10
								375278864#11   -268532188#2 ">
	</route> 

<vehicle id="1" route="route2_1" type="TAXI_1" depart="0.00" departPos="0.00">
</vehicle>

</routes>