<?xml version="1.0" encoding="UTF-8"?>

<routes xmlns:xsi="http://www.w3.org/2001/XMLSchema-instance" xsi:noNamespaceSchemaLocation="http://sumo.dlr.de/xsd/routes_file.xsd">
	
    <vType id="TAXI_1" guiShape="passenger/sedan" 	  maxSpeed="16.67" accel="1.9" decel="3" length="4.370" width="1.700" color="255,255,0"/>
	
	<route id="route1_1" 
	edges="-91859786#0	48205266#1 
			48205266#2	48205266#3 48399843#3	48399843#4	
            48399843#5	48399843#6	48399843#7 48399843#8  
			48399843#9 48399843#10	48399843#11 48399843#12 
			48399843#13 48399843#14	48399843#15 633036935#4 
			633036935#5 1005535556 	88520196#0 88520196#1 
			88520196#2 88520196#3	88520196#4	 88520196#5	 
			88520196#6	 88520196#7	88520196#8	 49157398#1	 
			49157398#2	 49157398#3	79091803#1 79091803#2 
			79091803#3 371527429	76503806#2	 76503806#3	 
			76507207#0  76507207#1	788613102  48398801#0 
			48398801#1 48398801#2   48398801#3	 48398801#4	 
			48398801#5	 48398801#6	48398801#7	 48398801#8	 
			48398801#9 48398801#10	48398801#11 48398801#12
			48398801#13 48398801#14 48398786#9	 48398786#0	 
			48398786#1	 48398786#2	48398786#3	 375276833#0 
			375276833#1 375276833#2">
	</route>
	
<vehicle id="1" route="route1_1" type="TAXI_1" depart="0.00" departPos="0.00">	
</vehicle>

</routes>