<?xml version="1.0" encoding="UTF-8"?>


<routes xmlns:xsi="http://www.w3.org/2001/XMLSchema-instance" xsi:noNamespaceSchemaLocation="http://sumo.dlr.de/xsd/routes_file.xsd">
	
    <vType id="TAXI_1" guiShape="passenger/sedan" 	  maxSpeed="16.67" accel="1.9" decel="3" length="4.370" width="1.700" emissionClass="HBEFA3/PC_G_EU2" color="255,255,0"/>
	<vType id="TAXI_2" guiShape="passenger/sedan"     maxSpeed="16.67" accel="1.9" decel="3" length="4.370" width="1.700" emissionClass="HBEFA3/PC_G_EU3" color="255,255,0"/>
	<vType id="TAXI_3" guiShape="passenger/sedan"     maxSpeed="16.67" accel="1.9" decel="3" length="4.370" width="1.700" emissionClass="HBEFA3/PC_G_EU4" color="255,255,0"/>
	<vType id="TAXI_4" guiShape="passenger/sedan"     maxSpeed="16.67" accel="1.9" decel="3" length="4.370" width="1.700" emissionClass="HBEFA3/PC_G_EU5" color="255,255,0"/>
	<vType id="TAXI_5" guiShape="passenger/sedan"     maxSpeed="16.67" accel="1.9" decel="3" length="4.370" width="1.700" emissionClass="HBEFA4/PC_petrol_Euro-6d" color="255,255,0"/>
	
	
	<route id="route3_1" edges="430660462#4 567228565 268533820#6	-48268645
								268533822#1	268533822#2	142724401#0	142724401#1
								142724401#2	142724401#3	142724401#4	142724401#5
								551105961#0	551105961#1	551105961#2	268534216
								268533818	445512533	551105960#0	551105960#1
								551105960#2	551105960#3	551105960#4	551105960#5
								551105960#6	445512534#0	445512534#1	445512534#2
								47908288#0	47908288#1	47908288#2	47908288#3
								47908288#4	435398045   74344204#0  74344204#1
								74344204#2	74344204#3	821611279	90972298
								142724424#0	142724424#1	48563008#1	48563008#2
								48563008#3	48563008#4	48563010#0	48563010#1
								91393352#0	91393352#1	91393352#2	91393352#3
								91393352#4	91393352#5	91393352#6	91393352#7
								91393352#8	797569048#0	797569048#1	797569048#2
								797569048#3	797569048#4	797569048#5	107286309#0
								107286309#1	79536222#0	79536222#1  79536222#2
								79536222#3	79536342#0	79536342#1  79536342#2
								79535762#1	79535762#2 ">
	</route>
	
<vehicle id="5" route="route3_1" type="TAXI_5" depart="0.00" departPos="0.00">			
</vehicle>

</routes>