<?xml version="1.0" encoding="UTF-8"?>

<routes xmlns:xsi="http://www.w3.org/2001/XMLSchema-instance" xsi:noNamespaceSchemaLocation="http://sumo.dlr.de/xsd/routes_file.xsd">
	
	<vType id="TAXI_3" guiShape="passenger/sedan" maxSpeed="8.33" accel="1.9" decel="3" length="4.370" width="1.700" 
			emissionClass="HBEFA3/PC_G_EU5" color="255,255,0"/>

	<route id="route1_1" 
	edges="88520171#1	88520171#2	88520171#3	88520171#4	88520171#5	88520171#6	88520171#7	88520171#8	88520171#9	88520171#10
			88520171#11	88520171#12	88520171#13	88520171#14	88520171#15	88520171#16	88520171#17	88520171#18	88520171#19	88520171#20
			142724401#2	142724401#3	142724401#4	142724401#5	142724401#6	142724401#0	48376975#0	48376975#1	48376975#2	48376975#3	
			48376975#4	48376975#5	48376975#6	48376975#7	48376975#8	48376975#9	48376975#10	48376975#11	48376975#12	48376975#13
			48376975#14	91859797  ">  </route>
		
<vehicle id="1" route="route1_1" type="TAXI_3" depart="0.00" departPos="0.00">	</vehicle>
</routes>