<?xml version="1.0" encoding="UTF-8"?>


<routes xmlns:xsi="http://www.w3.org/2001/XMLSchema-instance" xsi:noNamespaceSchemaLocation="http://sumo.dlr.de/xsd/routes_file.xsd">
	
    <vType id="TAXI_1" guiShape="passenger/hatchback" maxSpeed="16.67" accel="1.9" decel="3" length="3.765" width="1.660" emissionClass="HBEFA3/PC_G_EU6" color="255,255,0"/>
	<vType id="TAXI_2" guiShape="passenger/sedan"     maxSpeed="16.67" accel="1.9" decel="3" length="3.995" width="1.660" emissionClass="HBEFA3/PC_G_EU6" color="255,255,0"/>
	<vType id="TAXI_3" guiShape="passenger/sedan"     maxSpeed="16.67" accel="1.9" decel="3" length="4.370" width="1.700" emissionClass="HBEFA3/PC_G_EU6" color="255,255,0"/>

	<route id="route1_1" 
	edges="-91859786#0	48205266#1 
			48205266#2	48205266#3 48399843#3	48399843#4	
            48399843#5	48399843#6	48399843#7 48399843#8  
			48399843#9 48399843#10	48399843#11 48399843#12 
			48399843#13 48399843#14	48399843#15 633036935#4 
			633036935#5 1005535556 	88520196#0 88520196#1 
			88520196#2 88520196#3	88520196#4	 88520196#5	 
			88520196#6	 88520196#7	88520196#8	 49157398#1	 
			49157398#2	 49157398#3	79091803#1 79091803#2 
			79091803#3 371527429	76503806#2	 76503806#3	 
			76507207#0  76507207#1	788613102  48398801#0 
			48398801#1 48398801#2   48398801#3	 48398801#4	 
			48398801#5	 48398801#6	48398801#7	 48398801#8	 
			48398801#9 48398801#10	48398801#11 48398801#12
			48398801#13 48398801#14 48398786#9	 48398786#0	 
			48398786#1	 48398786#2	48398786#3	 375276833#0 
			375276833#1 375276833#2">
	</route>
	
	<route id="route2_1" edges="932018780#8 	932018780#9	 91859768#3	 74918635#8
								74918635#9		79091947#4	79091947#5	79091947#6
								788613104#0		788613104#1	788613104#2	788613104#3
								788613104#4		633072642#0	633072642#1 633072642#2
								633072642#3		48870204#6	48870204#7	48870204#8
								76391869#2		76391869#3 633036928#0	633036928#1
								633036928#2 	633036928#3	96379264	375278864#10
								375278864#11   -268532188#2 ">
	</route> 

	<route id="route3_1" edges="430660462#4 567228565 268533820#6	-48268645
								268533822#1	268533822#2	142724401#0	142724401#1
								142724401#2	142724401#3	142724401#4	142724401#5
								551105961#0	551105961#1	551105961#2	268534216
								268533818	445512533	551105960#0	551105960#1
								551105960#2	551105960#3	551105960#4	551105960#5
								551105960#6	445512534#0	445512534#1	445512534#2
								47908288#0	47908288#1	47908288#2	47908288#3
								47908288#4	435398045   74344204#0  74344204#1
								74344204#2	74344204#3	821611279	90972298
								142724424#0	142724424#1	48563008#1	48563008#2
								48563008#3	48563008#4	48563010#0	48563010#1
								91393352#0	91393352#1	91393352#2	91393352#3
								91393352#4	91393352#5	91393352#6	91393352#7
								91393352#8	797569048#0	797569048#1	797569048#2
								797569048#3	797569048#4	797569048#5	107286309#0
								107286309#1	79536222#0	79536222#1  79536222#2
								79536222#3	79536342#0	79536342#1  79536342#2
								79535762#1	79535762#2 ">
	</route>

	<route id="route4_1" 
	edges=" 48376054#6	  	48376054#7		48376054#8		48376054#9 
			821216342#3		821216342#4		821216342#5		821216342#6
			821216340		1005561391#0	1005561391#1	1005561391#2	
			1005561389		79091803#0		79091803#1		79091803#2		
			79091803#3		79091803#4		79091803#5		76391869#0
			76391869#1		76391869#2		76391869#3		633036928#0
			633036928#1		633036928#2		633036928#3		633036928#4
			1005800377		76391866#0		76391866#1		76391866#2
			76391866#3		76391866#4		76391866#5		76391866#6
			76391866#7		76391866#8		76391866#9		76391866#10
			76391866#11		76391866#12		76391866#13		76391866#14
			627028292		-108333920#10	-78046810#19	-78046810#18
			-78046810#17	-78046810#16	-78046810#15	-78046810#14
			-78046810#13	-78046810#12	-78046810#11                   ">
	</route>

	<route id="route5_1" 
	edges="	503110276#4		-79091721#5		-79091721#4		-79091721#3
			-79091721#2		-79091721#1		-79091721#0		1002973601
			626983749#0		626983749#1		626983749#2		626983749#3
			626983749#4		626983749#5		626983749#6		626983749#7
			626983749#8		626983749#9		626983749#10	626983749#11
			626983749#12	626983749#13	1005178530		-79091859#5	
			-626983748		-79091811#3		-79091963#4		-79091963#3
			-79091963#2		-79091963#1		-79091963#0		297382759#5
			297382759#6		-91859833#1		79092040#0		79092040#1
			79092040#2		79092040#3		91859862#7		91859807#1
			91859807#2		91859807#3		96314896		96314892
			96314891#0		96314891#1		96314891#2		96314891#3
			96314891#4		91859836		419628732#1		419628732#2
			419628732#3		419628732#4		419628732#5		419628732#6
			572979009#5		74842971#0		74842971#1		893394228#0
			893394228#1		893394230		893393727		893392725#0
			893392725#1		893392723		74920154#0		74920154#1		
			74920154#2		74920154#3		74920154#4		74920154#5
			74920154#6		74920154#7		48398786#7		48398786#8
			48398786#9		48398786#0		48398786#1		48562798#0
			48562798#1		48562798#2		48562798#3		48562798#4
			48562798#5 		90972291		90972289		142724424#1
			48563008#1		48563008#2		48563008#3		48563008#4
			48563010#0		48563010#1		91393352#0		91393352#1
			91393352#2		91393352#3		91393352#4		91393352#5
			91393352#6		91393352#7		91393352#8		797569048#0
			797569048#1		797569048#2		797569048#3		-107286289#13
			-107286289#12	-107286289#11	-107286289#10	-107286289#9
			-107286289#8	-107286291#5	-107286291#4	-107286291#3
			
			">
	</route>

	<route id="route6_1" 
	edges="	821542465#1		788587783#0		788587783#1		247462383#0
			247462383#1		247462383#2		247462383#3		247462383#4
			247462383#5		247462383#6		247462383#7		247462383#8
			247462383#9		247462383#10	247462383#11	247462318#0
			247462318#1		247462327#0		247462327#1		247462327#2
			247462327#3		247462327#4		439248074		99555866#0	
			99555866#1		99555822#4		99555822#5		99555822#6
			366015251#0		366015251#1		366015251#2		366015251#3
			366015251#4		366015251#5		366015251#6		366015251#7
			366015251#8		366015251#9		99555873#5		821535621#0
			821535621#1		821535621#2		263302178#0		263302178#1
			894323142#0		894323142#1		894323143		
			572979009#1 	572979009#2		572979009#3		572979009#4
			572979009#5		74842971#0		74842971#1		893394228#0
			893394228#1		893394230		893393727		893392725#0
			893392725#1		893392726#0		893392726#1		893392726#2
			893392726#3		79091640#4		79091640#5		79091640#6
			48398783#6		48398783#7		48398782#0		48398782#1
			48398782#2		48398782#3		79092033#0		79091975#1
			79091975#2		74917380#1		74917380#2		74917380#3
			74917380#4		74917380#5		74917380#6		375276948#0
			375276948#1		76391866#0		76391866#1		76391866#2
			76391866#3		76391866#4		76391866#5		76391866#6
			76391866#7		76391866#8		76391866#9		76391866#10
			76391866#11		76391866#12		76391866#13		76391866#14	
			627028292		48562991#0		-571291044#1	-571291044#0">
	</route>
	
	
	
<vehicle id="1" route="route1_1" type="TAXI_3" depart="0.00" departPos="0.00">	
	<!-- Stop signs  -->
	<stop	lane="48205266#2_0"	 endPos="-2"	duration="20.5" />
	<stop	lane="48205266#3_0"	 endPos="-2"	duration="20.5"	/>
	<stop	lane="48399843#15_0" endPos="-2"	duration="20.5"	/>
	<stop	lane="633036935#4_0" endPos="-2"	duration="20.5"	/>
	<stop	lane="88520196#0_0"  endPos="-2"	duration="20.5"	/>
	<stop	lane="88520196#1_0"  endPos="-2"	duration="20.5"	/>
	<stop	lane="88520196#2_0"  endPos="-2"	duration="20.5"	/>
	<stop	lane="88520196#3_0"  endPos="-2"	duration="20.5"	/>
	<stop	lane="88520196#4_0"  endPos="-2"	duration="20.5"	/>
	<stop	lane="88520196#5_0"  endPos="-2"	duration="20.5"	/>
	<stop	lane="88520196#6_0"  endPos="-2"	duration="20.5"	/>
	<stop	lane="88520196#7_0"  endPos="-2"	duration="20.5"	/>
	<stop	lane="88520196#8_0"  endPos="-2"	duration="20.5"	/>
	<stop	lane="49157398#3_0"  endPos="-2"	duration="20.5"	/>
	<stop	lane="79091803#1_0"  endPos="-2"	duration="10.5"	/>
	<stop	lane="79091803#2_0"  endPos="-2"	duration="10.5"	/>
	<stop	lane="79091803#3_0"  endPos="-2"	duration="10.5"	/>
	<stop	lane="76503806#2_0"  endPos="-2"	duration="10.5"	/>
	<stop	lane="76503806#3_0"  endPos="-2"	duration="10.5"	/>
	
	<!-- Traffic congestion - Peak hour -->

	<stop	lane="48398801#14_0" endPos="-2"	duration="20.5"	/>
	<stop	lane="375276833#0_0" endPos="-2"	duration="20.5"	/>
	<stop	lane="375276833#1_0" endPos="-2"	duration="20.5"	/>
	<stop	lane="375276833#2_0" endPos="-2"	duration="20.5"	/> 
	
	<!-- Stop signs -  hour
	<stop	lane="48205266#2_0"	 endPos="-2"	duration="9.2" />
	<stop	lane="48205266#3_0"	 endPos="-2"	duration="9.2"	/>
	<stop	lane="48399843#15_0" endPos="-2"	duration="9.2"	/>
	<stop	lane="633036935#4_0" endPos="-2"	duration="9.2"	/>
	<stop	lane="88520196#0_0"  endPos="-2"	duration="9.2"	/>
	<stop	lane="88520196#1_0"  endPos="-2"	duration="9.2"	/>
	<stop	lane="88520196#2_0"  endPos="-2"	duration="9.2"	/>
	<stop	lane="88520196#3_0"  endPos="-2"	duration="9.2"	/>
	<stop	lane="88520196#4_0"  endPos="-2"	duration="9.2"	/>
	<stop	lane="88520196#5_0"  endPos="-2"	duration="9.2"	/>
	<stop	lane="88520196#6_0"  endPos="-2"	duration="9.2"	/>
	<stop	lane="88520196#7_0"  endPos="-2"	duration="9.2"	/>
	<stop	lane="88520196#8_0"  endPos="-2"	duration="9.2"	/>
	<stop	lane="49157398#3_0"  endPos="-2"	duration="9.2"	/>
	<stop	lane="79091803#1_0"  endPos="-2"	duration="9.2"	/>
	<stop	lane="79091803#2_0"  endPos="-2"	duration="9.2"	/>
	<stop	lane="79091803#3_0"  endPos="-2"	duration="9.2"	/>
	<stop	lane="76503806#2_0"  endPos="-2"	duration="9.2"	/>
	<stop	lane="76503806#3_0"  endPos="-2"	duration="9.2"	/> -->
</vehicle>

<vehicle id="2" route="route2_1" type="TAXI_3" depart="0.00" departPos="0.00">
	 
	<!-- off-peak hour -->
		<!-- Stop passengers -->
		<stop	lane="932018780#8_0"  endPos="30.14"	duration="60.6"	/>
		
		<!-- Traffic congestion -->
		<stop	lane="74918635#8_0"	 endPos="44.79"	duration="25.2" />
		<stop	lane="74918635#9_0"	 endPos="50.87"	duration="25.2" />

		<stop	lane="74918635#9_0"	 endPos="-2"	duration="43" />

		<stop	lane="79091947#4_0"	 endPos="45.16"	duration="25.2" />
		
		<!-- Stop signs -->
		<stop	lane="788613104#2_0" endPos="-2"	duration="20.5"	/>
		<stop	lane="788613104#3_0" endPos="-2"	duration="20.5"	/>
		<stop	lane="788613104#4_0" endPos="-2"	duration="20.5"	/>
		<stop	lane="633072642#0_0" endPos="-2"	duration="20.5"	/>

		
		<!-- Stop passengers -->
		<stop	lane="-268532188#2_0"  endPos="42.68"	duration="60.6"	/>  
		
	<!--    
				rush hour
	Traficc congestion
	<stop	lane="74918635#8_0"	 endPos="44.79"	duration="25.2" />
	<stop	lane="74918635#9_0"	 endPos="50.87"	duration="25.2" />
	Police officer
	<stop	lane="74918635#9_0"	 endPos="-2"	duration="43" />
	Traffic congestion
	<stop	lane="79091947#4_0"	 endPos="45.16"	duration="25.2" />
	
	-->
</vehicle>

<vehicle id="3" route="route3_1" type="TAXI_1" depart="0.00" departPos="0.00">			
</vehicle>

<vehicle id="4" route="route4_1" type="TAXI_3" depart="0.00" departPos="0.00">			
	<!-- Stop passengers -->
	<stop	lane="48376054#6_0"  endPos="49.35"	duration="60.6"	/>
	<!-- Traffic congestion -->
	<stop	lane="48376054#7_0"  endPos="53.04"	duration="25.2"	/>
	<stop	lane="48376054#8_0"  endPos="47.60"	duration="25.2"	/>
	<!-- Stop signs -->
	<stop	lane="79091803#4_0"  endPos="-2"	duration="20.5"	/>
	<!-- Traffic congestion -->
	<stop	lane="76391869#0_0"  endPos="23.78"	duration="25.2"	/>
	<!-- Stop signs -->
	<stop	lane="76391869#0_0"  endPos="-2"	duration="20.5"	/>
	<!-- Traffic congestion -->
	<stop	lane="76391869#1_0"  endPos="46.33"	duration="25.2"	/>
	<stop	lane="76391869#2_0"  endPos="44.75"	duration="25.2"	/>
	<stop	lane="76391869#3_0"  endPos="118.13"	duration="25.2"	/>
	<stop	lane="633036928#0_0"  endPos="27.57"	duration="25.2"	/>
	<stop	lane="633036928#1_0"  endPos="22.69"	duration="25.2"	/>
	<stop	lane="633036928#3_0"  endPos="17.79"	duration="25.2"	/>
	<stop	lane="76391866#3_0"  endPos="66.73"	duration="25.2"	/>
</vehicle>

<vehicle id="5" route="route5_1" type="TAXI_3" depart="0.00" departPos="0.00">			

	<stop	lane="503110276#4_0"  endPos="13.06"	duration="60.6"	/>
	<!-- Traffic congestion -->
	<stop	lane="91859807#2_0"  endPos="9.49"	duration="25.2"	/>
	<stop	lane="91859807#3_0"  endPos="2.16"	duration="25.2"	/>
	<stop	lane="96314896_0"  endPos="6.75"	duration="25.2"	/>
	<stop	lane="96314891#0_0"  endPos="7.05"	duration="25.2"	/>
	<stop	lane="96314891#2_0"  endPos="15.96"	duration="25.2"	/>
	<stop	lane="96314891#4_0"  endPos="60.85"	duration="25.2"	/>
	
	<stop	lane="419628732#6_0" endPos="27.12"	duration="25.2"	/>
	<stop	lane="893392725#0_0" endPos="44.84"	duration="25.2"	/>
	<stop	lane="74920154#1_0"  endPos="41.75"	duration="25.2"	/>
	<stop	lane="74920154#3_0"  endPos="25.23"	duration="25.2"	/>
	<stop	lane="74920154#5_0"  endPos="5.70"	duration="25.2"	/>
	<stop	lane="74920154#7_0"  endPos="18.17"	duration="25.2"	/>
	<stop	lane="90972289_0"  endPos="78.79"	duration="25.2"	/>
	<stop	lane="48563008#2_0"  endPos="7.20"	duration="25.2"	/>
	<stop	lane="48563008#4_0"  endPos="7.47"	duration="25.2"	/>

	<!-- Traffic congestion -->
	<!-- Stop passengers -->
	<stop	lane="-107286291#3_0"  endPos="-5"	duration="60.6"	/>
</vehicle>

<vehicle id="6" route="route6_1" type="TAXI_3" depart="0.00" departPos="0.00">			
</vehicle>

</routes>