<?xml version="1.0" encoding="UTF-8"?>


<routes xmlns:xsi="http://www.w3.org/2001/XMLSchema-instance" xsi:noNamespaceSchemaLocation="http://sumo.dlr.de/xsd/routes_file.xsd">
	
    <vType id="TAXI_4" vClass="taxi" maxSpeed="22.22" accel="2.6" decel="4.5" 
			length="5" width="1.8" height="1.5" emissionClass="HBEFA3/PC_G_EU5" color="255,255,0"/>
    
	<route id="route4_1" 
	edges=" 48376054#6	  	48376054#7		48376054#8		48376054#9 
			821216342#3		821216342#4		821216342#5		821216342#6
			821216340		1005561391#0	1005561391#1	1005561391#2	
			1005561389		79091803#0		79091803#1		79091803#2		
			79091803#3		79091803#4		79091803#5		76391869#0
			76391869#1		76391869#2		76391869#3		633036928#0
			633036928#1		633036928#2		633036928#3		633036928#4
			1005800377		76391866#0		76391866#1		76391866#2
			76391866#3		76391866#4		76391866#5		76391866#6
			76391866#7		76391866#8		76391866#9		76391866#10
			76391866#11		76391866#12		76391866#13		76391866#14
			627028292		-108333920#10	-78046810#19	-78046810#18
			-78046810#17	-78046810#16	-78046810#15	-78046810#14
			-78046810#13	-78046810#12	-78046810#11                   ">
	</route>
	

<vehicle id="4" route="route4_1" type="TAXI_4" depart="0.00" departPos="0.00">			
	<stop	lane="79091803#4_0"  endPos="-2"	duration="20.5"	/>
	<stop	lane="76391869#0_0"  endPos="-2"	duration="20.5"	/>
</vehicle>

</routes>