<?xml version="1.0" encoding="UTF-8"?>


<routes xmlns:xsi="http://www.w3.org/2001/XMLSchema-instance" xsi:noNamespaceSchemaLocation="http://sumo.dlr.de/xsd/routes_file.xsd">
	
    <vType id="TAXI_1" guiShape="passenger/sedan" 	  maxSpeed="16.67" accel="1.9" decel="3" length="4.370" width="1.700" emissionClass="HBEFA3/PC_G_EU2" color="255,255,0"/>
	<vType id="TAXI_2" guiShape="passenger/sedan"     maxSpeed="16.67" accel="1.9" decel="3" length="4.370" width="1.700" emissionClass="HBEFA3/PC_G_EU3" color="255,255,0"/>
	<vType id="TAXI_3" guiShape="passenger/sedan"     maxSpeed="16.67" accel="1.9" decel="3" length="4.370" width="1.700" emissionClass="HBEFA4/PC_petrol_Euro-4" color="255,255,0"/>
	<vType id="TAXI_4" guiShape="passenger/sedan"     maxSpeed="16.67" accel="1.9" decel="3" length="4.370" width="1.700" emissionClass="HBEFA3/PC_G_EU5" color="255,255,0"/>
	<vType id="TAXI_5" guiShape="passenger/sedan"     maxSpeed="16.67" accel="1.9" decel="3" length="4.370" width="1.700" emissionClass="HBEFA3/PC_G_EU6" color="255,255,0"/>

	<route id="route6_1" 
	edges="	821542465#1		788587783#0		788587783#1		247462383#0
			247462383#1		247462383#2		247462383#3		247462383#4
			247462383#5		247462383#6		247462383#7		247462383#8
			247462383#9		247462383#10	247462383#11	247462318#0
			247462318#1		247462327#0		247462327#1		247462327#2
			247462327#3		247462327#4		439248074		99555866#0	
			99555866#1		99555822#4		99555822#5		99555822#6
			366015251#0		366015251#1		366015251#2		366015251#3
			366015251#4		366015251#5		366015251#6		366015251#7
			366015251#8		366015251#9		99555873#5		821535621#0
			821535621#1		821535621#2		263302178#0		263302178#1
			894323142#0		894323142#1		894323143		
			572979009#1 	572979009#2		572979009#3		572979009#4
			572979009#5		74842971#0		74842971#1		893394228#0
			893394228#1		893394230		893393727		893392725#0
			893392725#1		893392726#0		893392726#1		893392726#2
			893392726#3		79091640#4		79091640#5		79091640#6
			48398783#6		48398783#7		48398782#0		48398782#1
			48398782#2		48398782#3		79092033#0		79091975#1
			79091975#2		74917380#1		74917380#2		74917380#3
			74917380#4		74917380#5		74917380#6		375276948#0
			375276948#1		76391866#0		76391866#1		76391866#2
			76391866#3		76391866#4		76391866#5		76391866#6
			76391866#7		76391866#8		76391866#9		76391866#10
			76391866#11		76391866#12		76391866#13		76391866#14	
			627028292		48562991#0		-571291044#1	-571291044#0">
	</route>

<vehicle id="3" route="route6_1" type="TAXI_3" depart="0.00" departPos="0.00">			
</vehicle>

</routes>