<configuration>

<input>
<net-file value="../../pasto_network.net.xml"/>
<route-files value="../../routes_files2/route2/route2_1.rou.xml"/>
</input>

<time>
<begin value="0"/>
<end value="2000"/>
</time>

</configuration>